Circuit: * U:\designs\BD\sim\opamp_mixer.asc

WARNING: Less than two connections to node N005.  This node is used by V2.
Early termination of direct N-R iteration.
Direct Newton iteration failed to find .op point.  (Use ".option noopiter" to skip.)
Starting Gmin stepping
Gmin = 10
Gmin = 1.07374
Gmin = 0.115292
Gmin = 0.0123794
Gmin = 0.00132923
Gmin = 0.000142725
Gmin = 1.5325e-005
Gmin = 1.6455e-006
Gmin = 1.76685e-007
Gmin = 1.89714e-008
vernier = 0.5
vernier = 0.25
vernier = 0.125
Gmin = 1.34317e-008
vernier = 0.0625
vernier = 0.03125
vernier = 0.015625
Gmin = 1.35841e-008
vernier = 0.0208333
vernier = 0.0104167
vernier = 0.0138889
Gmin = 1.32699e-008
vernier = 0.0185185
vernier = 0.00925925
Gmin = 1.29816e-008
vernier = 0.0123457
vernier = 0.0164609
vernier = 0.00823044
Gmin = 1.26915e-008
vernier = 0.0109739
vernier = 0.0146319
Gmin = 1.23626e-008
vernier = 0.00731595
vernier = 0.00975459
Gmin = 1.21758e-008
vernier = 0.0130061
vernier = 0.0173415
Gmin = 1.17806e-008
vernier = 0.023122
Gmin = 1.11849e-008
vernier = 0.0308293
vernier = 0.0411057
Gmin = 1.02533e-008
vernier = 0.0548076
vernier = 0.0730768
Gmin = 8.92888e-009
vernier = 0.0974357
Gmin = 7.18842e-009
vernier = 0.129914
vernier = 0.173219
Gmin = 5.00844e-009
vernier = 0.230959
vernier = 0.307945
Gmin = 2.83261e-009
vernier = 0.410593
Gmin = 1.17145e-009
vernier = 0.547457
vernier = 0.729942
Gmin = 2.77517e-010
vernier = 0.973256
vernier = 1
Gmin = 3.43869e-011
Gmin = 3.69227e-012
Gmin = 3.96454e-013
Gmin = 0
Gmin stepping succeeded in finding the operating point.

Heightened Def Con from 0.00132005 to 0.00132005

Date: Wed May 22 13:10:16 2013
Total elapsed time: 3.300 seconds.

tnom = 27
temp = 27
method = modified trap
totiter = 71999
traniter = 69894
tranpoints = 29074
accept = 22789
rejected = 6286
matrix size = 50
fillins = 141
solver = Normal
Thread vector: 64.1/38.4[2] 11.3/6.0[2] 3.9/3.2[2] 1.6/5.7[1]  2592/500
Matrix Compiler1:     557 opcodes  3.9/[3.5]/4.5
Matrix Compiler2: 7.47 KB object code size  2.7/3.1/[1.9]


